#

Generated from tyrosine.xyz

0 1
 O                 -3.88664036   -1.77977349   -0.02781487
 O                 -4.32924699    0.12517644   -1.21232622
 O                  4.12560000    0.64700000    0.36130000
 N                 -1.96142245    0.06070006    1.24082058
 C                 -2.18784488   -0.14995735   -0.22397913
 C                 -1.11910000   -1.13780000   -0.70600000
 C                  0.28520000   -0.66050000   -0.42030000
 C                  0.71790000    0.53750000   -0.96500000
 C                  1.11320000   -1.42920000    0.38120000
 C                 -3.60939682   -0.64996155   -0.52190722
 C                  2.01430000    0.97900000   -0.70080000
 C                  2.40970000   -0.98770000    0.64550000
 C                  2.86030000    0.21630000    0.10440000
 H                 -2.03628636    0.83317542   -0.68524486
 H                 -1.22096236   -1.33223405   -1.78267949
 H                 -1.26458899   -2.11437466   -0.22388644
 H                 -2.63502151    0.73620644    1.62595007
 H                 -1.01939604    0.42857138    1.42969583
 H                 -2.06635285   -0.81487608    1.77084676
 H                  0.07530000    1.13590000   -1.60340000
 H                  0.77040000   -2.36690000    0.80890000
 H                  2.35420000    1.91750000   -1.13040000
 H                  3.06390000   -1.58590000    1.27390000
 H                  4.26760000    1.49590000   -0.09180000

